
#======================================================================
# CRYSTAL DATA
#----------------------------------------------------------------------
data_VESTA_phase_1

_chemical_name_common                  'Ba Ca Co Zr Fe Y  O                   '
_cell_length_a                         12.255935
_cell_length_b                         12.255935
_cell_length_c                         8.170624
_cell_angle_alpha                      90.000000
_cell_angle_beta                       90.000000
_cell_angle_gamma                      90.000000
_cell_volume                           1227.292532
_space_group_name_H-M_alt              'P 1'
_space_group_IT_number                 1

loop_
_space_group_symop_operation_xyz
   'x, y, z'

loop_
   _atom_site_label
   _atom_site_occupancy
   _atom_site_fract_x
   _atom_site_fract_y
   _atom_site_fract_z
   _atom_site_adp_type
   _atom_site_U_iso_or_equiv
   _atom_site_type_symbol
   Ba1        1.0     0.159241     0.167607     0.256476    Uiso  ? Ba
   Ba2        1.0     0.162335     0.174360     0.749472    Uiso  ? Ba
   Ba3        1.0     0.171626     0.504952     0.234587    Uiso  ? Ba
   Ba4        1.0     0.170380     0.504454     0.768301    Uiso  ? Ba
   Ba5        1.0     0.168231     0.832030     0.255816    Uiso  ? Ba
   Ba6        1.0     0.169889     0.832227     0.744074    Uiso  ? Ba
   Ba7        1.0     0.488388     0.168653     0.249367    Uiso  ? Ba
   Ba8        1.0     0.485862     0.166885     0.746111    Uiso  ? Ba
   Ba9        1.0     0.477770     0.509735     0.237504    Uiso  ? Ba
   Ba10       1.0     0.478485     0.509714     0.759560    Uiso  ? Ba
   Ba11       1.0     0.482402     0.835569     0.251477    Uiso  ? Ba
   Ba12       1.0     0.478451     0.836790     0.744033    Uiso  ? Ba
   Ba13       1.0     0.824950     0.181085     0.247549    Uiso  ? Ba
   Ba14       1.0     0.825332     0.174774     0.749985    Uiso  ? Ba
   Ba15       1.0     0.824403     0.502475     0.767600    Uiso  ? Ba
   Ba16       1.0     0.831194     0.841183     0.241826    Uiso  ? Ba
   Ba17       1.0     0.828905     0.839629     0.746843    Uiso  ? Ba
   Ca1        1.0     0.849483     0.503412     0.195629    Uiso  ? Ca
   Co1        1.0     0.011633     0.973776     0.984519    Uiso  ? Co
   Co2        1.0     0.997030     0.025251     0.530863    Uiso  ? Co
   Co3        1.0     0.002443     0.364720     0.002033    Uiso  ? Co
   Co4        1.0     0.354398     0.674168     0.498710    Uiso  ? Co
   Co5        1.0     0.646222     0.315234     0.965724    Uiso  ? Co
   Co6        1.0     0.660801     0.327795     0.537112    Uiso  ? Co
   Co7        1.0     0.655629     0.700180     0.963919    Uiso  ? Co
   Co8        1.0     0.653503     0.682600     0.532780    Uiso  ? Co
   Zr1        1.0     0.987273     0.344912     0.502916    Uiso  ? Zr
   Zr2        1.0     0.322297     0.003526     0.000407    Uiso  ? Zr
   Fe1        1.0    -0.000352     0.673056     0.030936    Uiso  ? Fe
   Fe2        1.0     0.945917     0.647580     0.463800    Uiso  ? Fe
   Fe3        1.0     0.326356     0.003272     0.500771    Uiso  ? Fe
   Fe4        1.0     0.335257     0.336993     0.000501    Uiso  ? Fe
   Fe5        1.0     0.330896     0.673014    -0.002022    Uiso  ? Fe
   Fe6        1.0     0.639819    -0.000765     0.997435    Uiso  ? Fe
   Y1         1.0     0.331153     0.339960     0.499120    Uiso  ? Y
   Y2         1.0     0.663745     0.003938     0.497160    Uiso  ? Y
   O1         1.0     0.332776     0.336186     0.769705    Uiso  ? O
   O2         1.0     0.673266     0.002550     0.777930    Uiso  ? O
   O3         1.0     0.966616     0.016017     0.179979    Uiso  ? O
   O4         1.0     0.509045     0.670392     0.005084    Uiso  ? O
   O5         1.0     0.797926     0.637437     0.457138    Uiso  ? O
   O6         1.0     0.986531     0.175370     0.498711    Uiso  ? O
   O7         1.0     0.667876     0.171587     0.007441    Uiso  ? O
   O8         1.0     0.801774     0.658016     0.026724    Uiso  ? O
   O9         1.0     0.323101     0.002493     0.257630    Uiso  ? O
   O10        1.0     0.143995     0.995497     0.498238    Uiso  ? O
   O11        1.0     0.992695     0.521577     0.541126    Uiso  ? O
   O12        1.0     0.152606     0.671876     0.988149    Uiso  ? O
   O13        1.0     0.667788     0.654146     0.749763    Uiso  ? O
   O14        1.0     0.980350     0.513911    -0.014042    Uiso  ? O
   O15        1.0     0.151200     0.345329     0.501085    Uiso  ? O
   O16        1.0     0.844992     0.000853     0.506984    Uiso  ? O
   O17        1.0     0.322829     0.831029     0.497950    Uiso  ? O
   O18        1.0     0.518645     0.348833     0.489053    Uiso  ? O
   O19        1.0     0.992384     0.760958     0.562539    Uiso  ? O
   O20        1.0     0.326695     0.835784    -0.000005    Uiso  ? O
   O21        1.0     0.324019     0.673161     0.260522    Uiso  ? O
   O22        1.0     0.485421     0.002064     0.500119    Uiso  ? O
   O23        1.0     0.153380     0.006591    -0.002226    Uiso  ? O
   O24        1.0     0.510424     0.659072     0.485843    Uiso  ? O
   O25        1.0     0.323892     0.159324     0.500283    Uiso  ? O
   O26        1.0     0.667731     0.184647     0.497684    Uiso  ? O
   O27        1.0     0.327941     0.176881     0.999614    Uiso  ? O
   O28        1.0     0.672181     0.843285     0.015790    Uiso  ? O
   O29        1.0     0.984070     0.016646     0.760478    Uiso  ? O
   O30        1.0     0.979037     0.828845     0.982249    Uiso  ? O
   O31        1.0     0.331032     0.520948     0.497926    Uiso  ? O
   O32        1.0     0.324425     0.001998     0.742080    Uiso  ? O
   O33        1.0     0.328913     0.497630     0.000617    Uiso  ? O
   O34        1.0     0.985920     0.336128     0.770619    Uiso  ? O
   O35        1.0     0.667922     0.822670     0.486217    Uiso  ? O
   O36        1.0     0.325696     0.673574     0.735460    Uiso  ? O
   O37        1.0     0.144234     0.327337     0.006926    Uiso  ? O
   O38        1.0     0.501163     0.340616     0.010327    Uiso  ? O
   O39        1.0     0.658926     0.362840     0.753907    Uiso  ? O
   O40        1.0    -0.003245     0.652200     0.262745    Uiso  ? O
   O41        1.0     0.982709     0.361111     0.243662    Uiso  ? O
   O42        1.0     0.672970     0.007489     0.219971    Uiso  ? O
   O43        1.0     0.784341     0.362770     0.034588    Uiso  ? O
   O44        1.0     0.494411     0.005160     0.997212    Uiso  ? O
   O45        1.0     0.812929     0.349858     0.503197    Uiso  ? O
   O46        1.0     0.331785     0.335904     0.230118    Uiso  ? O
