
#======================================================================
# CRYSTAL DATA
#----------------------------------------------------------------------
data_VESTA_phase_1

_chemical_name_common                  'Ba Fe Co Y  Zr O                      '
_cell_length_a                         12.363890
_cell_length_b                         12.363890
_cell_length_c                         8.242594
_cell_angle_alpha                      90.000000
_cell_angle_beta                       90.000000
_cell_angle_gamma                      90.000000
_cell_volume                           1260.010429
_space_group_name_H-M_alt              'P 1'
_space_group_IT_number                 1

loop_
_space_group_symop_operation_xyz
   'x, y, z'

loop_
   _atom_site_label
   _atom_site_occupancy
   _atom_site_fract_x
   _atom_site_fract_y
   _atom_site_fract_z
   _atom_site_adp_type
   _atom_site_U_iso_or_equiv
   _atom_site_type_symbol
   Ba1        1.0     0.171522     0.147747     0.266852    Uiso  ? Ba
   Ba2        1.0     0.167969     0.140468     0.753806    Uiso  ? Ba
   Ba3        1.0     0.155857     0.498349     0.251717    Uiso  ? Ba
   Ba4        1.0     0.159628     0.499983     0.771050    Uiso  ? Ba
   Ba5        1.0     0.165131     0.831273     0.260515    Uiso  ? Ba
   Ba6        1.0     0.159395     0.845660     0.742453    Uiso  ? Ba
   Ba7        1.0     0.490845     0.162906     0.272167    Uiso  ? Ba
   Ba8        1.0     0.491449     0.143869     0.748467    Uiso  ? Ba
   Ba9        1.0     0.505253     0.498786     0.243474    Uiso  ? Ba
   Ba10       1.0     0.505366     0.498559     0.752006    Uiso  ? Ba
   Ba11       1.0     0.506226     0.829064     0.254160    Uiso  ? Ba
   Ba12       1.0     0.508331     0.833911     0.744895    Uiso  ? Ba
   Ba13       1.0     0.838892     0.156439     0.260574    Uiso  ? Ba
   Ba14       1.0     0.842669     0.151553     0.746827    Uiso  ? Ba
   Ba15       1.0     0.838218     0.508840     0.249790    Uiso  ? Ba
   Ba16       1.0     0.835219     0.505785     0.762324    Uiso  ? Ba
   Ba17       1.0     0.834487     0.826494     0.253061    Uiso  ? Ba
   Ba18       1.0     0.835567     0.830298     0.758306    Uiso  ? Ba
   Fe1        1.0     0.000730     0.964614     0.015547    Uiso  ? Fe
   Fe2        1.0     0.001440     0.994948     0.468996    Uiso  ? Fe
   Fe3        1.0    -0.012986     0.665908     0.006749    Uiso  ? Fe
   Fe4        1.0     0.334846     0.693033     0.957455    Uiso  ? Fe
   Fe5        1.0     0.675284     0.355046     0.046455    Uiso  ? Fe
   Fe6        1.0     0.675979     0.662051     0.001985    Uiso  ? Fe
   Co1        1.0     0.967872     0.353566     0.005377    Uiso  ? Co
   Co2        1.0     0.309224     0.972315     0.014333    Uiso  ? Co
   Co3        1.0     0.331435     0.987356     0.478062    Uiso  ? Co
   Co4        1.0     0.375424     0.317876     0.976204    Uiso  ? Co
   Co5        1.0     0.323085     0.300729     0.542227    Uiso  ? Co
   Co6        1.0     0.333274     0.691030     0.539032    Uiso  ? Co
   Co7        1.0     0.692434     0.970545     0.005937    Uiso  ? Co
   Co8        1.0     0.683233     0.331395     0.469396    Uiso  ? Co
   Y1         1.0     0.001567     0.325210     0.508155    Uiso  ? Y
   Y2         1.0     0.668690     0.001403     0.499446    Uiso  ? Y
   Zr1        1.0     0.005225     0.668884     0.509209    Uiso  ? Zr
   Zr2        1.0     0.663677     0.657991     0.502731    Uiso  ? Zr
   O1         1.0     0.007184     0.667119     0.763276    Uiso  ? O
   O2         1.0     0.834423     0.658881     0.508665    Uiso  ? O
   O3         1.0     0.184720     0.666260     0.505497    Uiso  ? O
   O4         1.0     0.339539     0.830590     0.475033    Uiso  ? O
   O5         1.0     0.214048     0.651692     0.037118    Uiso  ? O
   O6         1.0     0.002145     0.663987     0.252776    Uiso  ? O
   O7         1.0     0.436201     0.358206     0.463232    Uiso  ? O
   O8         1.0     0.002244     0.836862     0.503663    Uiso  ? O
   O9         1.0     0.165398     0.999481     0.009764    Uiso  ? O
   O10        1.0     0.006579     0.150451     0.500187    Uiso  ? O
   O11        1.0     0.664547     0.823349     0.501263    Uiso  ? O
   O12        1.0     0.484052     0.657899     0.499038    Uiso  ? O
   O13        1.0     0.008542     0.497431     0.005901    Uiso  ? O
   O14        1.0     0.348748     0.831538     0.019860    Uiso  ? O
   O15        1.0     0.838414    -0.001379     0.020514    Uiso  ? O
   O16        1.0     0.666688     0.000365     0.782303    Uiso  ? O
   O17        1.0     0.334910     0.647369     0.751451    Uiso  ? O
   O18        1.0     0.331965     0.158122     0.512987    Uiso  ? O
   O19        1.0     0.832241     0.670035     0.001200    Uiso  ? O
   O20        1.0     0.663511     0.496675     0.982762    Uiso  ? O
   O21        1.0    -0.001166     0.007992     0.806460    Uiso  ? O
   O22        1.0     0.339814     0.998302     0.244716    Uiso  ? O
   O23        1.0     0.650678     0.829543    -0.000684    Uiso  ? O
   O24        1.0     0.658684     0.005165     0.221579    Uiso  ? O
   O25        1.0     0.338075     0.323037     0.764119    Uiso  ? O
   O26        1.0     0.664505     0.657132     0.248296    Uiso  ? O
   O27        1.0     0.175105     0.993016     0.501319    Uiso  ? O
   O28        1.0     0.461214     0.648897     0.022917    Uiso  ? O
   O29        1.0     0.323577     0.425523     0.074954    Uiso  ? O
   O30        1.0     0.652482     0.313917     0.255167    Uiso  ? O
   O31        1.0     0.486884    -0.003063     0.501549    Uiso  ? O
   O32        1.0     0.523570     0.316484     0.975814    Uiso  ? O
   O33        1.0     0.843794     0.998501     0.491984    Uiso  ? O
   O34        1.0     0.658985     0.659262     0.755865    Uiso  ? O
   O35        1.0     0.819191     0.321287     0.990932    Uiso  ? O
   O36        1.0     0.334457     0.191274     0.036288    Uiso  ? O
   O37        1.0     0.014315     0.501853     0.511363    Uiso  ? O
   O38        1.0     0.342472    -0.008723     0.800898    Uiso  ? O
   O39        1.0     0.660550     0.184910     0.517018    Uiso  ? O
   O40        1.0     0.016988     0.820940     0.006636    Uiso  ? O
   O41        1.0     0.663169     0.482709     0.500878    Uiso  ? O
   O42        1.0     0.191531     0.336700     0.486633    Uiso  ? O
   O43        1.0     0.823886     0.332398     0.521739    Uiso  ? O
   O44        1.0     0.993130     0.327740     0.227227    Uiso  ? O
   O45        1.0     0.006988     0.321411     0.787579    Uiso  ? O
   O46        1.0     0.011095    -0.003173     0.235505    Uiso  ? O
