
#======================================================================
# CRYSTAL DATA
#----------------------------------------------------------------------
data_VESTA_phase_1

_chemical_name_common                  'BCFZY'
_cell_length_a                         12.3421(8)
_cell_length_b                         12.3421(8)
_cell_length_c                         12.3421(8)
_cell_angle_alpha                      90.000000
_cell_angle_beta                       90.000000
_cell_angle_gamma                      90.000000
_cell_volume                           1880.049185
_space_group_name_H-M_alt              'P 1'
_space_group_IT_number                 1

loop_
_space_group_symop_operation_xyz
   'x, y, z'

loop_
   _atom_site_label
   _atom_site_occupancy
   _atom_site_fract_x
   _atom_site_fract_y
   _atom_site_fract_z
   _atom_site_adp_type
   _atom_site_U_iso_or_equiv
   _atom_site_type_symbol
   Ba1        1.0     0.000000     0.000000     0.000000    Uiso  0.010000 Ba
   Ba2        1.0     0.000000     0.000000     0.333333    Uiso  0.010000 Ba
   Ba3        1.0     0.000000     0.000000     0.666667    Uiso  0.010000 Ba
   Ba4        1.0     0.000000     0.333333     0.000000    Uiso  0.010000 Ba
   Ba5        1.0     0.000000     0.333333     0.333333    Uiso  0.010000 Ba
   Ba6        1.0     0.000000     0.333333     0.666667    Uiso  0.010000 Ba
   Ba7        1.0     0.000000     0.666667     0.000000    Uiso  0.010000 Ba
   Ba8        1.0     0.000000     0.666667     0.333333    Uiso  0.010000 Ba
   Ba9        1.0     0.000000     0.666667     0.666667    Uiso  0.010000 Ba
   Ba10       1.0     0.333333     0.000000     0.000000    Uiso  0.010000 Ba
   Ba11       1.0     0.333333     0.000000     0.333333    Uiso  0.010000 Ba
   Ba12       1.0     0.333333     0.000000     0.666667    Uiso  0.010000 Ba
   Ba13       1.0     0.333333     0.333333     0.000000    Uiso  0.010000 Ba
   Ba14       1.0     0.333333     0.333333     0.333333    Uiso  0.010000 Ba
   Ba15       1.0     0.333333     0.333333     0.666667    Uiso  0.010000 Ba
   Ba16       1.0     0.333333     0.666667     0.000000    Uiso  0.010000 Ba
   Ba17       1.0     0.333333     0.666667     0.333333    Uiso  0.010000 Ba
   Ba18       1.0     0.333333     0.666667     0.666667    Uiso  0.010000 Ba
   Ba19       1.0     0.666667     0.000000     0.000000    Uiso  0.010000 Ba
   Ba20       1.0     0.666667     0.000000     0.333333    Uiso  0.010000 Ba
   Ba21       1.0     0.666667     0.000000     0.666667    Uiso  0.010000 Ba
   Ba22       1.0     0.666667     0.333333     0.000000    Uiso  0.010000 Ba
   Ba23       1.0     0.666667     0.333333     0.333333    Uiso  0.010000 Ba
   Ba24       1.0     0.666667     0.333333     0.666667    Uiso  0.010000 Ba
   Ba25       1.0     0.666667     0.666667     0.000000    Uiso  0.010000 Ba
   Ba26       1.0     0.666667     0.666667     0.333333    Uiso  0.010000 Ba
   Ba27       1.0     0.666667     0.666667     0.666667    Uiso  0.010000 Ba
   Co1        1.0     0.166667     0.166667     0.166667    Uiso  0.010000 Co
   Fe1        1.0     0.166667     0.166667     0.500000    Uiso  0.010000 Fe
   Co3        1.0     0.166667     0.166667     0.833333    Uiso  0.010000 Co
   Fe2        1.0     0.166667     0.500000     0.166667    Uiso  0.010000 Fe
   Co5        1.0     0.166667     0.500000     0.500000    Uiso  0.010000 Co
   Co6        1.0     0.166667     0.500000     0.833333    Uiso  0.010000 Fe
   Co7        1.0     0.166667     0.833333     0.166667    Uiso  0.010000 Co
   Co2        1.0     0.166667     0.833333     0.500000    Uiso  0.010000 Fe
   Co2        1.0     0.166667     0.833333     0.833333    Uiso  0.010000 Co
   Co2        1.0     0.500000     0.166667     0.166667    Uiso  0.010000 Fe
   Co2        1.0     0.500000     0.166667     0.500000    Uiso  0.010000 Co
   Co2        1.0     0.500000     0.166667     0.833333    Uiso  0.010000 Fe
   Co2        1.0     0.500000     0.500000     0.166667    Uiso  0.010000 Co
   Zr         1.0     0.500000     0.500000     0.500000    Uiso  0.010000 Zr
   Co2        1.0     0.500000     0.500000     0.833333    Uiso  0.010000 Co
   Co2        1.0     0.500000     0.833333     0.166667    Uiso  0.010000 Fe
   Co2        1.0     0.500000     0.833333     0.500000    Uiso  0.010000 Co
   Co2        1.0     0.500000     0.833333     0.833333    Uiso  0.010000 Fe
   Y          1.0     0.833333     0.166667     0.166667    Uiso  0.010000 Y
   Co2        1.0     0.833333     0.166667     0.500000    Uiso  0.010000 Fe
   Co2        1.0     0.833333     0.166667     0.833333    Uiso  0.010000 Co
   Co2        1.0     0.833333     0.500000     0.166667    Uiso  0.010000 Fe
   Co2        1.0     0.833333     0.500000     0.500000    Uiso  0.010000 Co
   Co2        1.0     0.833333     0.500000     0.833333    Uiso  0.010000 Fe
   Co2        1.0     0.833333     0.833333     0.166667    Uiso  0.010000 Co
   Co2        1.0     0.833333     0.833333     0.500000    Uiso  0.010000 Fe
   Co2        1.0     0.833333     0.833333     0.833333    Uiso  0.010000 Co
   O1         1.0     0.166667     0.000000     0.166667    Uiso  0.010000 O
   O1         1.0     0.166667     0.000000     0.500000    Uiso  0.010000 O
   O1         1.0     0.166667     0.000000     0.833333    Uiso  0.010000 O
   O1         1.0     0.166667     0.333333     0.166667    Uiso  0.010000 O
   O1         1.0     0.166667     0.333333     0.500000    Uiso  0.010000 O
   O1         1.0     0.166667     0.333333     0.833333    Uiso  0.010000 O
   O1         1.0     0.166667     0.666667     0.166667    Uiso  0.010000 O
   O1         1.0     0.166667     0.666667     0.500000    Uiso  0.010000 O
   O1         1.0     0.166667     0.666667     0.833333    Uiso  0.010000 O
   O1         1.0     0.500000     0.000000     0.166667    Uiso  0.010000 O
   O1         1.0     0.500000     0.000000     0.500000    Uiso  0.010000 O
   O1         1.0     0.500000     0.000000     0.833333    Uiso  0.010000 O
   O1         1.0     0.500000     0.333333     0.166667    Uiso  0.010000 O
   O1         1.0     0.500000     0.333333     0.500000    Uiso  0.010000 O
   O1         1.0     0.500000     0.333333     0.833333    Uiso  0.010000 O
   O1         1.0     0.500000     0.666667     0.166667    Uiso  0.010000 O
   O1         1.0     0.500000     0.666667     0.500000    Uiso  0.010000 O
   O1         1.0     0.500000     0.666667     0.833333    Uiso  0.010000 O
   O1         1.0     0.833333     0.000000     0.166667    Uiso  0.010000 O
   O1         1.0     0.833333     0.000000     0.500000    Uiso  0.010000 O
   O1         1.0     0.833333     0.000000     0.833333    Uiso  0.010000 O
   O1         1.0     0.833333     0.333333     0.166667    Uiso  0.010000 O
   O1         1.0     0.833333     0.333333     0.500000    Uiso  0.010000 O
   O1         1.0     0.833333     0.333333     0.833333    Uiso  0.010000 O
   O1         1.0     0.833333     0.666667     0.166667    Uiso  0.010000 O
   O1         1.0     0.833333     0.666667     0.500000    Uiso  0.010000 O
   O1         1.0     0.833333     0.666667     0.833333    Uiso  0.010000 O
   O1         1.0     0.166667     0.166667     0.000000    Uiso  0.010000 O
   O1         1.0     0.166667     0.166667     0.333333    Uiso  0.010000 O
   O1         1.0     0.166667     0.166667     0.666667    Uiso  0.010000 O
   O1         1.0     0.166667     0.500000     0.000000    Uiso  0.010000 O
   O1         1.0     0.166667     0.500000     0.333333    Uiso  0.010000 O
   O1         1.0     0.166667     0.500000     0.666667    Uiso  0.010000 O
   O1         1.0     0.166667     0.833333     0.000000    Uiso  0.010000 O
   O1         1.0     0.166667     0.833333     0.333333    Uiso  0.010000 O
   O1         1.0     0.166667     0.833333     0.666667    Uiso  0.010000 O
   O1         1.0     0.500000     0.166667     0.000000    Uiso  0.010000 O
   O1         1.0     0.500000     0.166667     0.333333    Uiso  0.010000 O
   O1         1.0     0.500000     0.166667     0.666667    Uiso  0.010000 O
   O1         1.0     0.500000     0.500000     0.000000    Uiso  0.010000 O
   O1         1.0     0.500000     0.500000     0.333333    Uiso  0.010000 O
   O1         1.0     0.500000     0.500000     0.666667    Uiso  0.010000 O
   O1         1.0     0.500000     0.833333     0.000000    Uiso  0.010000 O
   O1         1.0     0.500000     0.833333     0.333333    Uiso  0.010000 O
   O1         1.0     0.500000     0.833333     0.666667    Uiso  0.010000 O
   O1         1.0     0.833333     0.166667     0.000000    Uiso  0.010000 O
   O1         1.0     0.833333     0.166667     0.333333    Uiso  0.010000 O
   O1         1.0     0.833333     0.166667     0.666667    Uiso  0.010000 O
   O1         1.0     0.833333     0.500000     0.000000    Uiso  0.010000 O
   O1         1.0     0.833333     0.500000     0.333333    Uiso  0.010000 O
   O1         1.0     0.833333     0.500000     0.666667    Uiso  0.010000 O
   O1         1.0     0.833333     0.833333     0.000000    Uiso  0.010000 O
   O1         1.0     0.833333     0.833333     0.333333    Uiso  0.010000 O
   O1         1.0     0.833333     0.833333     0.666667    Uiso  0.010000 O
   O1         1.0     0.000000     0.166667     0.166667    Uiso  0.010000 O
   O1         1.0     0.000000     0.166667     0.500000    Uiso  0.010000 O
   O1         1.0     0.000000     0.166667     0.833333    Uiso  0.010000 O
   O1         1.0     0.000000     0.500000     0.166667    Uiso  0.010000 O
   O1         1.0     0.000000     0.500000     0.500000    Uiso  0.010000 O
   O1         1.0     0.000000     0.500000     0.833333    Uiso  0.010000 O
   O1         1.0     0.000000     0.833333     0.166667    Uiso  0.010000 O
   O1         1.0     0.000000     0.833333     0.500000    Uiso  0.010000 O
   O1         1.0     0.000000     0.833333     0.833333    Uiso  0.010000 O
   O1         1.0     0.333333     0.166667     0.166667    Uiso  0.010000 O
   O1         1.0     0.333333     0.166667     0.500000    Uiso  0.010000 O
   O1         1.0     0.333333     0.166667     0.833333    Uiso  0.010000 O
   O1         1.0     0.333333     0.500000     0.166667    Uiso  0.010000 O
   O1         1.0     0.333333     0.500000     0.500000    Uiso  0.010000 O
   O1         1.0     0.333333     0.500000     0.833333    Uiso  0.010000 O
   O1         1.0     0.333333     0.833333     0.166667    Uiso  0.010000 O
   O1         1.0     0.333333     0.833333     0.500000    Uiso  0.010000 O
   O1         1.0     0.333333     0.833333     0.833333    Uiso  0.010000 O
   O1         1.0     0.666667     0.166667     0.166667    Uiso  0.010000 O
   O1         1.0     0.666667     0.166667     0.500000    Uiso  0.010000 O
   O1         1.0     0.666667     0.166667     0.833333    Uiso  0.010000 O
   O1         1.0     0.666667     0.500000     0.166667    Uiso  0.010000 O
   O1         1.0     0.666667     0.500000     0.500000    Uiso  0.010000 O
   O1         1.0     0.666667     0.500000     0.833333    Uiso  0.010000 O
   O1         1.0     0.666667     0.833333     0.166667    Uiso  0.010000 O
   O1         1.0     0.666667     0.833333     0.500000    Uiso  0.010000 O
   O1         1.0     0.666667     0.833333     0.833333    Uiso  0.010000 O
